Version 4
SHEET 1 1632 680
WIRE 48 -128 -192 -128
WIRE 224 -128 48 -128
WIRE -192 -112 -192 -128
WIRE 224 -96 224 -128
WIRE 48 -48 48 -128
WIRE 64 -48 48 -48
WIRE 416 -48 384 -48
WIRE 576 -48 496 -48
WIRE -192 -16 -192 -32
WIRE -16 64 -32 64
WIRE 64 64 48 64
WIRE 416 64 384 64
WIRE 416 80 416 64
WIRE 416 176 416 144
WIRE 416 176 384 176
WIRE 464 176 416 176
WIRE 576 176 576 -48
WIRE 576 176 544 176
WIRE 720 176 576 176
WIRE 784 176 720 176
WIRE 832 176 784 176
WIRE 864 176 832 176
WIRE 912 176 864 176
WIRE 976 176 912 176
WIRE 576 192 576 176
WIRE 720 192 720 176
WIRE 976 208 976 176
WIRE -192 288 -240 288
WIRE -96 288 -112 288
WIRE 64 288 -96 288
WIRE 576 288 576 272
WIRE 576 288 384 288
WIRE 656 288 576 288
WIRE 720 288 720 256
WIRE -240 304 -240 288
WIRE -96 304 -96 288
WIRE 576 304 576 288
WIRE 976 304 976 288
WIRE 656 336 656 288
WIRE 736 336 656 336
WIRE -240 384 -240 368
WIRE -96 384 -96 368
WIRE 64 400 48 400
WIRE 400 400 384 400
WIRE 496 400 480 400
WIRE 576 400 576 384
WIRE 880 416 784 416
WIRE 224 464 224 448
WIRE 880 496 880 416
WIRE 880 496 864 496
WIRE 928 496 880 496
WIRE 992 496 928 496
WIRE 1120 496 1072 496
WIRE 1216 496 1120 496
FLAG 224 464 0
FLAG 576 400 0
FLAG 496 400 0
FLAG -240 384 0
FLAG -192 -16 0
FLAG 720 288 0
FLAG 976 304 0
FLAG 832 176 OUT
FLAG -192 -128 IN
FLAG -32 64 0
FLAG -96 384 0
FLAG 784 240 0
FLAG 864 240 0
FLAG 912 240 0
FLAG 1216 576 0
FLAG 736 512 0
FLAG 1120 560 0
FLAG 928 560 0
FLAG 880 560 0
SYMBOL ind 448 192 R270
WINDOW 0 32 56 VTop 2
WINDOW 3 5 56 VBottom 2
SYMATTR InstName L1
SYMATTR Value 3.3µ
SYMATTR SpiceLine Ipk=0.15 Rser=0.2 Rpar=0 Cpar=0 mfg="Murata" pn="LQM18PN3R3MGHD"
SYMBOL res 560 176 R0
SYMATTR InstName R1
SYMATTR Value 64.9K
SYMBOL res 560 288 R0
SYMATTR InstName R2
SYMATTR Value 16.2K
SYMBOL cap 400 80 R0
SYMATTR InstName C2
SYMATTR Value 0.1µ
SYMATTR SpiceLine V=6.3 Irms=0 Rser=0.0283 Lser=180p mfg="Würth Elektronik" pn="885012104003 WCAP-CSGP 0201" type="X5R"
SYMBOL polcap 704 192 R0
WINDOW 3 24 56 Left 2
SYMATTR Value 56µ
SYMATTR InstName C3
SYMATTR Description Capacitor
SYMATTR Type cap
SYMATTR SpiceLine V=16 Irms=175m Rser=0.65 Lser=0 mfg="Nichicon" pn="UPL1C560MAH" type="Al electrolytic"
SYMBOL res 384 416 R270
WINDOW 0 32 56 VTop 2
WINDOW 3 0 56 VBottom 2
SYMATTR InstName R3
SYMATTR Value 215K
SYMBOL cap -256 304 R0
SYMATTR InstName C4
SYMATTR Value 0.0022µ
SYMATTR SpiceLine V=10 Irms=0 Rser=0.1495 Lser=333p mfg="Würth Elektronik" pn="885012206010 WCAP-CSGP 0603" type="X7R"
SYMBOL res -96 272 R90
WINDOW 0 0 56 VBottom 2
WINDOW 3 32 56 VTop 2
SYMATTR InstName R4
SYMATTR Value 7.5K
SYMBOL voltage -192 -128 R0
WINDOW 123 0 0 Left 2
WINDOW 39 0 0 Left 2
SYMATTR InstName V1
SYMATTR Value 13.2
SYMBOL res 512 -64 R90
WINDOW 0 0 56 VBottom 2
WINDOW 3 32 56 VTop 2
SYMATTR InstName R5
SYMATTR Value 100K
SYMBOL cap 48 48 R90
WINDOW 0 0 32 VBottom 2
WINDOW 3 32 32 VTop 2
SYMATTR InstName C5
SYMATTR Value 1µ
SYMBOL cap -112 304 R0
SYMATTR InstName C6
SYMATTR Value 22p
SYMATTR SpiceLine V=10 Irms=0 Rser=0.3482 Lser=775p mfg="Würth Elektronik" pn="885012006004 WCAP-CSGP 0603" type="NP0"
SYMBOL ADP2386 224 176 R0
SYMATTR InstName U1
SYMBOL res 960 192 R0
SYMATTR InstName Rload
SYMATTR Value 900m
SYMBOL cap 768 176 R0
SYMATTR InstName C7
SYMATTR Value 10µ
SYMATTR SpiceLine V=6.3 Irms=0
SYMBOL cap 848 176 R0
SYMATTR InstName C8
SYMATTR Value 1µ
SYMATTR SpiceLine V=16 Irms=0 Rser=0.0041
SYMBOL cap 896 176 R0
SYMATTR InstName C9
SYMATTR Value 0.1µ
SYMATTR SpiceLine V=4 Irms=0 Rser=0 Lser=0 mfg="Murata" pn="GRM022R60G153KE15" type="X5R"
SYMBOL voltage 1216 480 R0
WINDOW 123 0 0 Left 0
WINDOW 39 0 0 Left 0
SYMATTR InstName V2
SYMATTR Value PULSE(0 3.3 0 0 0 {current} 20u)
SYMBOL nmos 784 336 M0
SYMATTR InstName M1
SYMBOL res 720 416 R0
SYMATTR InstName R6
SYMATTR Value 0.5k
SYMBOL cap 864 496 R0
SYMATTR InstName C1
SYMATTR Value 100n
SYMBOL cap 912 496 R0
SYMATTR InstName C10
SYMATTR Value 1µ
SYMBOL res 1088 480 R90
WINDOW 0 0 56 VBottom 2
WINDOW 3 32 56 VTop 2
SYMATTR InstName R7
SYMATTR Value 0.5k
SYMBOL cap 1104 496 R0
SYMATTR InstName C11
SYMATTR Value 100n
TEXT 160 560 Left 2 !.tran 5m startup
TEXT 144 632 Left 2 !.step param current 0 20u 2.5u
